%nprocshared=8
%mem=10GB
%chk=molecule_3.chk
# opt freq b3lyp/6-31+g(d) empiricaldispersion=gd3

Title Card Required

0 1
 P                 -0.00040900   -0.00058100   -1.20785600
 C                  0.39161700    1.62435900   -0.40303700
 C                 -0.13556000    2.77827300   -1.01078500
 C                  1.20006400    1.77669300    0.73502200
 C                  0.11640000    4.04653900   -0.48264900
 H                 -0.74643800    2.68209600   -1.90618800
 C                  1.46424900    3.04744500    1.25699200
 H                  1.62958400    0.90256200    1.21595400
 C                  0.92059600    4.18475700    0.65344200
 H                 -0.30460300    4.92569700   -0.96440900
 H                  2.09482700    3.14622600    2.13749300
 H                  1.12704800    5.17147600    1.06047900
 C                 -1.60335600   -0.47376500   -0.40291000
 C                 -2.13879400    0.15011300    0.73551200
 C                 -2.33997500   -1.50646100   -1.01095100
 C                 -3.37146000   -0.25571900    1.25776500
 H                 -1.59549200    0.95836300    1.21645900
 C                 -3.56445900   -1.92173300   -0.48251000
 H                 -1.95199300   -1.98717900   -1.90681000
 C                 -4.08537000   -1.29455800    0.65403800
 H                 -3.77177900    0.24091500    2.13853200
 H                 -4.11610000   -2.72518600   -0.96458100
 H                 -5.04325400   -1.60862500    1.06115100
 C                  1.21129500   -1.15210100   -0.40346200
 C                  0.93937000   -1.92881400    0.73433800
 C                  2.47447800   -1.27137100   -1.01100400
 C                  1.90852000   -2.79193800    1.25672900
 H                 -0.03247700   -1.86418900    1.21515300
 C                  3.44752000   -2.12261100   -0.48244300
 H                  2.69628300   -0.69405800   -1.90637100
 C                  3.16557200   -2.88837000    0.65367700
 H                  1.67915400   -3.38758800    2.13721700
 H                  4.41967000   -2.19654100   -0.96379900
 H                  3.91746200   -3.55968900    1.06097900

