%nprocshared=8
%mem=10GB
%chk=D:\Reaction optimization project\source code\DFT\opti\ligand\input\molecule_15.chk
# opt freq b3lyp/6-31+g(d) geom=connectivity empiricaldispersion=gd3

Title Card Required

0 1
 C                 -4.67565269    0.55543831   -0.01214583
 C                 -2.58756043    1.76734076    0.23871078
 C                 -3.27836899    2.98126988    0.12433609
 C                 -4.66781949    2.98228323   -0.05827896
 C                 -5.36646147    1.76936747   -0.12651896
 H                 -5.20908109   -0.37064983   -0.06425052
 H                 -2.74494015    3.90735796    0.17643743
 H                 -5.19526711    3.90914505   -0.14560698
 H                 -6.42733795    1.77014121   -0.26594807
 C                 -1.06069189    1.76622720    0.43938770
 O                 -0.43333992    2.85537605    0.50066447
 O                 -0.35578536    0.52752404    0.55609787
 H                  0.53520929    0.63296778    0.21461558
 N                 -3.28620217    0.55442496    0.17046898

 1 5 1.5 6 1.0 14 1.5
 2 3 1.5 10 1.0 14 1.5
 3 4 1.5 7 1.0
 4 5 1.5 8 1.0
 5 9 1.0
 6
 7
 8
 9
 10 11 2.0 12 1.0
 11
 12 13 1.0
 13
 14

