%nprocshared=8
%mem=10GB
%chk=D:\Reaction optimization project\source code\DFT\opti\ligand\opti\molecule_1.chk
# opt freq b3lyp/6-31+g(d) geom=connectivity empiricaldispersion=gd3

Title Card Required

0 1
 C                  3.01878735   -1.33366284   -0.19518330
 C                  2.35266055    0.04418814   -0.02371389
 N                  0.89420181   -0.09887575   -0.13917309
 C                  2.86282221    1.00069335   -1.11752963
 O                  2.01923137    2.04950032   -1.60049797
 O                  4.02205711    0.85934461   -1.58632120
 H                  4.08038657   -1.22952789   -0.11114157
 H                  2.77447947   -1.73055102   -1.15835173
 H                  2.66432438   -1.99824762    0.56480556
 H                  2.59696843    0.44107633    0.93945455
 H                  0.66587669   -0.46979929   -1.03933050
 H                  0.46165194    0.79583268   -0.02782932
 H                  1.10105213    1.77652898   -1.53698791

 1 7 1.0 8 1.0 9 1.0 2 1.0
 2 4 1.0 3 1.0 10 1.0
 3 11 1.0 12 1.0
 4 5 1.0 6 2.0
 5 13 1.0
 6
 7
 8
 9
 10
 11
 12
 13

