%nprocshared=8
%mem=10GB
%chk=D:\Reaction optimization project\source code\DFT\opti\ligand\input\molecule_5.chk
# opt freq b3lyp/6-31+g(d) geom=connectivity empiricaldispersion=gd3

Title Card Required

0 1
 C                 -0.39874375    0.28431436    0.01575780
 C                 -0.89377504    0.78271719    1.38620978
 C                 -1.50778553    2.18882551    1.51831017
 H                 -1.31608344    2.57101668    2.49916705
 H                 -1.06974351    2.83913802    0.79022169
 H                 -2.56414730    2.13329320    1.35732580
 N                 -0.79383253    0.02024457    2.42642513
 O                 -1.23100774    0.46039055    3.63669342
 H                 -1.52856050   -0.28699058    4.16060544
 C                  0.21526156   -1.12179612   -0.11634367
 H                 -0.22278394   -1.77210796    0.61174331
 H                  0.02355938   -1.50398521   -1.09720134
 H                  1.27162332   -1.06626805    0.04464224
 N                 -0.49868192    1.04678879   -1.02445663
 O                 -0.06151540    0.60663919   -2.23472675
 H                 -0.58413640    1.01202166   -2.93052294

 1 2 1.0 10 1.0 14 2.0
 2 3 1.0 7 2.0
 3 4 1.0 5 1.0 6 1.0
 4
 5
 6
 7 8 1.0
 8 9 1.0
 9
 10 11 1.0 12 1.0 13 1.0
 11
 12
 13
 14 15 1.0
 15 16 1.0
 16

