%nprocshared=8
%mem=10GB
%chk=D:\Reaction optimization project\source code\DFT\opti\ligand\input\molecule_2.chk
# opt freq b3lyp/6-31+g(d) geom=connectivity empiricaldispersion=gd3

Title Card Required

0 1
 C                 -2.00010000   -0.13540000   -0.15150000
 C                 -3.46850000   -0.19560000   -0.31020000
 N                 -4.04890000   -1.42380000   -0.38490000
 C                 -5.39090000   -1.48320000   -0.53060000
 C                 -6.21150000   -0.37340000   -0.60860000
 C                 -5.60980000    0.87300000   -0.53120000
 C                 -4.23060000    0.96900000   -0.38100000
 C                 -1.33780000    1.08750000   -0.06300000
 C                  0.04480000    1.10480000    0.08530000
 C                  0.74860000   -0.08820000    0.14340000
 C                  0.02330000   -1.26120000    0.04900000
 N                 -1.31920000   -1.31180000   -0.09540000
 H                 -5.83070000   -2.41500000   -0.58730000
 H                 -7.23300000   -0.46930000   -0.72020000
 H                 -6.18450000    1.72850000   -0.58490000
 H                 -3.77600000    1.89360000   -0.32270000
 H                 -1.86820000    1.97170000   -0.10710000
 H                  0.54610000    2.00430000    0.15190000
 H                  1.77470000   -0.10000000    0.25300000
 H                  0.53940000   -2.15390000    0.09140000

 1 2 1.0 8 2.0 12 1.0
 2 3 2.0 7 1.0
 3 4 1.0
 4 5 2.0 13 1.0
 5 6 1.0 14 1.0
 6 7 2.0 15 1.0
 7 16 1.0
 8 9 1.0 17 1.0
 9 10 2.0 18 1.0
 10 11 1.0 19 1.0
 11 12 2.0 20 1.0
 12
 13
 14
 15
 16
 17
 18
 19
 20

